<nodes>
    <node id="junction_center" x="100" y="100" type="traffic_light"/>
    <node id="node_N" x="100" y="200" type="dead_end"/>
    <node id="node_S" x="100" y="0" type="dead_end"/>
    <node id="node_E" x="200" y="100" type="dead_end"/>
    <node id="node_W" x="0" y="100" type="dead_end"/>
</nodes>